356
Lattice="11.679959927 0.0 0.0 0.0 11.6784181164 0.0 0.0 0.0 23.370019938" Origin="-0.001399035 -6.0873677253e-04 -0.0021508938" Properties=species:S:1:pos:R:3
C 0.0324875792 5.8411435628 0.0192834425
C 5.8730122265 0.0027390885 5.8625766099
C 2.9377175717 0.0107418136 0.0064664819
C 8.7771411673 11.6778093796 0.0138668648
C 0.0244880624 2.9141383808 5.8664143155
C 0.0257143751 8.7646536528 5.8655953753
C 5.8364818698 5.8377654003 2.9355351929
C 5.8546120153 5.8342717488 8.7808910033
H 1.1247245393 5.7664184937 -0.0021508938
H 11.3681293971 5.8511157457 1.0585946506
H 11.2770330407 4.982339417 11.1766685929
H 11.4000637752 6.7662406917 11.2038104332
H 6.9670221683 0.0052283819 5.8171298165
H 5.5507194731 0.0404574884 6.9083918075
H 5.4901490213 10.7688738103 5.3952523153
H 5.4842133647 0.8759217828 5.3285429101
H 4.0337477682 0.015333697 0.034744897
H 2.5462439988 0.0075785943 1.0315189869
H 2.5861771987 10.7947399783 11.1590937091
H 2.5806800479 0.9057226034 11.1622226631
H 9.8732121071 0.0237008437 0.0047515355
H 8.419672691 11.669508021 1.0510510093
H 8.4247455941 10.77503139 11.1787954413
H 8.3863600091 0.8853356306 11.1809408012
H 1.1213990529 2.9383866355 5.864330732
H 11.3410832783 2.8800146717 6.9010710875
H 11.3575204102 2.02334704 5.3282320181
H 11.3195300192 3.8143874019 5.3729597059
H 1.1229388861 8.755172294 5.8573110423
H 11.3470359962 8.7666329548 6.9025040755
H 11.3282851664 7.8724580817 5.3504585209
H 11.3446555157 9.6642812824 5.3529657007
H 5.8331911896 5.8338142234 4.0317448666
H 6.8718491773 5.8246278505 2.5726915706
H 5.3094153035 4.9504170081 2.5622753761
H 5.3327501521 6.7414197495 2.5708265379
H 5.8670187811 5.8446583493 9.8769759248
H 6.8846784554 5.8354586305 8.4023151731
H 5.3375349162 4.9334365913 8.4265630605
H 5.3291128684 6.7237816525 8.4125150927
H 10.8804495311 0.0217758367 3.4842097221
H 11.6649678393 0.8187603237 2.3312057909
H 0.7967812353 11.6558374976 8.163074136
H 0.0109492213 10.8667889373 9.322439584
H 10.8884128752 2.792853197 1.6232935748
H 11.6676831516 2.1556004901 0.3757789958
H -0.001399035 1.3848719299 9.7620930149
H 10.878029127 2.7443075727 10.0201602713
H 11.6738766242 10.2832735264 1.8890976803
H 0.784814713 8.9175014076 1.6349976241
H 0.7821798801 8.8891930366 10.0429749345
H 11.678560892 9.5249876513 11.289881963
H 5.0451227984 3.4987149342 11.6516279201
H 5.8304051906 2.3376329835 10.8677279446
H 6.6355478907 8.1745705219 0.0220727257
H 5.8503169025 9.3396769533 0.8043325563
H 5.8339605427 1.9051705231 1.396587805
H 5.0499663508 1.6524354087 2.7654516255
H 5.0273003175 10.0508431883 2.7665951467
H 5.8171626623 11.303433252 2.1535440297
H 6.6410747548 1.6216216371 8.9010457857
H 5.8534354779 0.373278635 9.5299413548
H 5.8396208101 9.7671455127 10.2728803485
H 6.6149637653 10.0266261481 8.898258298
H 3.6970938453 5.4511937158 11.6828590752
H 3.0801077933 4.2063507289 0.8032167195
H 4.4310366585 7.7359093838 11.6774261644
H 3.0756061382 7.4718511771 10.8688019409
H 1.4092029238 0.0168099172 3.939014948
H 2.7580940649 10.879371491 4.1930572275
H 2.154593702 0.0071556 6.2177453269
H 2.7682608958 0.800709612 7.4662277652
H 2.7077342224 3.115960227 2.7185384209
H 1.3703415389 3.1680312491 1.8334021552
H 2.6569432669 3.9827059019 10.3293581279
H 1.3589556023 3.1548501005 9.8436231456
H 2.6637375538 7.674360891 1.3458948603
H 1.8406955896 7.1890922282 2.6441231526
H 2.6896019418 8.546489036 8.952503848
H 1.8311099157 7.1902156296 8.9936470141
H 3.1698510278 1.3662985737 4.0049673681
H 3.972557325 2.6778526114 4.4952920609
H 3.9800000212 8.9849418605 4.4677121183
H 3.1138116857 8.9389006442 3.1168031861
H 4.4751970813 1.8398710035 8.5207961802
H 3.1263939901 2.7073667709 8.5774598483
H 3.1637465071 10.3265303628 7.6950960821
H 4.4542232529 9.8360562271 8.5290049612
H 7.2504083003 3.942367561 11.6717842847
H 8.60809604 4.2027728742 0.7978722812
H 7.9976208204 6.2220772108 11.6638879737
H 8.5963618902 7.4739863437 10.8647674273
H 9.5272462878 11.6673944922 5.4529789417
H 8.9124930255 10.8714412703 4.2025194385
H 10.2707222427 11.6635211169 7.721854522
H 8.9187341679 0.801276852 7.4741515635
H 8.9756547517 3.1292136216 2.7204736973
H 9.8268503241 4.4886645307 2.6912583101
H 9.0001334087 4.002166294 10.3159569058
H 9.8212319089 4.4925847472 9.0178722471
H 9.0147321562 7.6950526072 1.341262635
H 10.3083128375 8.5250596609 1.8287584931
H 8.9455695585 8.5768502129 8.9380970694
H 10.2886907892 8.5387173595 9.8188468
H 8.5065731607 1.3505035408 3.9757225029
H 7.212309525 1.8383676995 3.1472168198
H 7.1950790065 9.8451321161 3.1597365479
H 8.5415116327 8.974907805 3.0957510057
H 7.6737231702 2.6739245824 7.1951860408
H 8.5428564691 2.7353197403 8.541861077
H 8.4933539127 10.3219750885 7.6588225229
H 7.6793984752 9.018635099 7.1672778941
H 3.491621947 6.6449238878 5.8270609519
H 2.3350132685 5.8610656886 5.0315427786
H 8.1697404104 5.0272185081 5.8539759744
H 9.3283288656 5.8157302985 6.6483022038
H 1.6285824537 5.0326855314 8.5960483106
H 1.8784663305 5.8328393751 7.2358641403
H 10.0481324094 6.6499000181 8.6000553794
H 11.2844169044 5.8374172284 7.9865520697
H 1.6140995676 5.0343997301 3.0699004958
H 0.3814015548 5.8449110779 3.6933514762
H 10.0200640615 6.6608708301 3.0908806991
H 9.7558093972 5.8559891515 4.4497276381
H 3.9296688901 4.4447413682 5.8389019047
H 4.1926184133 3.0891740447 6.6487107877
H 6.2136008095 3.6871750336 5.8258329142
H 7.4552911363 3.0637614799 5.0278760275
H 5.4533720153 7.993808018 5.8435664426
H 4.2127078189 8.6188974831 6.6441778837
H 7.7259240918 7.2397617439 5.8364452596
H 7.4716391299 8.5916108146 5.021155387
O 0.0181046439 0.0047975939 2.910507344
O 11.6602179653 11.6775287234 8.740127411
O 0.0119435514 2.2490151591 1.3683259548
O 0.0063746617 2.2267802806 10.3035375722
O 11.6585737944 9.4401367354 1.3521942105
O 11.6590096016 9.4360465113 10.2955765203
O 5.8606142072 2.921647708 -0.0014953051
O 5.8214891804 8.7536943167 11.6750595814
O 5.8541660831 1.3687399422 2.2401839564
O 5.8364490856 10.3089769491 2.2344776964
O 5.8355972315 1.3671940579 9.4422391459
O 5.8140668709 10.3071771965 9.4319767114
O 3.6122464788 4.4563933271 11.6702302571
O 3.5913515307 7.1916875746 5.4389447624e-04
O 2.2527501362 0.0169229664 4.4753346403
O 2.2333371741 11.6716641231 7.2126401627
O 2.1540036681 3.715463155 2.1357351324
O 2.1452979841 3.6865843154 9.5210237765
O 2.1328707962 7.9989871292 2.1321941325
O 2.1157109515 7.9766560468 9.5468136239
O 3.702043494 2.1540045169 3.6838410386
O 3.6882648698 9.5359715315 3.6847402792
O 3.6926261512 2.1398022543 7.9727932613
O 3.6700841454 9.514241696 7.9919567037
O 8.0927837305 4.482320134 11.6657356718
O 8.0713910022 7.2176580775 -7.909742233e-04
O 9.4517366444 -6.0873677253e-04 4.4567215283
O 9.4260914022 11.6666537138 7.1856495341
O 9.5518774557 3.7044190673 2.1331239161
O 9.5324179451 3.6795588794 9.5284502365
O 9.5226680706 7.9916158612 2.1524331135
O 9.5083067699 7.984634532 9.5215592677
O 7.9986301011 2.1605431678 3.6807327219
O 7.9827274342 9.5478136872 3.7022316357
O 7.9726182871 2.1297653621 7.9807481463
O 7.9575191849 9.5374914985 7.9794054218
O 2.9110441205 5.8320672891 5.847616796
O 8.7460701986 5.8442535102 5.8360497967
O 1.3366048418 5.8357767771 8.0760724619
O 10.2889836725 5.830687153 8.0757355529
O 1.3739695227 5.8515526618 3.5993239979
O 10.3097714244 5.8583997089 3.61566825
O 4.4708469396 3.6029643041 5.8346515698
O 7.2078888235 3.6010173153 5.8360931814
O 4.4576380921 8.0772855406 5.8375784273
O 7.1856786292 8.080835092 5.8342489217
C 0.0324875792 5.8411435628 11.7042934115
C 5.8730122265 0.0027390885 17.5475865789
C 2.9377175717 0.0107418136 11.6914764509
C 8.7771411673 11.6778093796 11.6988768338
C 0.0244880624 2.9141383808 17.5514242845
C 0.0257143751 8.7646536528 17.5506053443
C 5.8364818698 5.8377654003 14.6205451619
C 5.8546120153 5.8342717488 20.4659009723
H 1.1247245393 5.7664184937 11.6828590752
H 11.3681293971 5.8511157457 12.7436046196
H 11.2770330407 4.982339417 22.8616785619
H 11.4000637752 6.7662406917 22.8888204022
H 6.9670221683 0.0052283819 17.5021397855
H 5.5507194731 0.0404574884 18.5934017765
H 5.4901490213 10.7688738103 17.0802622843
H 5.4842133647 0.8759217828 17.0135528791
H 4.0337477682 0.015333697 11.719754866
H 2.5462439988 0.0075785943 12.7165289559
H 2.5861771987 10.7947399783 22.8441036781
H 2.5806800479 0.9057226034 22.8472326321
H 9.8732121071 0.0237008437 11.6897615045
H 8.419672691 11.669508021 12.7360609783
H 8.4247455941 10.77503139 22.8638054103
H 8.3863600091 0.8853356306 22.8659507702
H 1.1213990529 2.9383866355 17.549340701
H 11.3410832783 2.8800146717 18.5860810565
H 11.3575204102 2.02334704 17.0132419871
H 11.3195300192 3.8143874019 17.0579696749
H 1.1229388861 8.755172294 17.5423210113
H 11.3470359962 8.7666329548 18.5875140445
H 11.3282851664 7.8724580817 17.0354684899
H 11.3446555157 9.6642812824 17.0379756697
H 5.8331911896 5.8338142234 15.7167548356
H 6.8718491773 5.8246278505 14.2577015396
H 5.3094153035 4.9504170081 14.2472853451
H 5.3327501521 6.7414197495 14.2558365069
H 5.8670187811 5.8446583493 21.5619858938
H 6.8846784554 5.8354586305 20.0873251421
H 5.3375349162 4.9334365913 20.1115730295
H 5.3291128684 6.7237816525 20.0975250617
H 10.8804495311 0.0217758367 15.1692196911
H 11.6649678393 0.8187603237 14.0162157599
H 0.7967812353 11.6558374976 19.848084105
H 0.0109492213 10.8667889373 21.007449553
H 10.8884128752 2.792853197 13.3083035438
H 11.6676831516 2.1556004901 12.0607889648
H -0.001399035 1.3848719299 21.4471029839
H 10.878029127 2.7443075727 21.7051702403
H 11.6738766242 10.2832735264 13.5741076493
H 0.784814713 8.9175014076 13.3200075931
H 0.7821798801 8.8891930366 21.7279849035
H 11.678560892 9.5249876513 22.974891932
H 5.0451227984 3.4987149342 23.3366378891
H 5.8304051906 2.3376329835 22.5527379136
H 6.6355478907 8.1745705219 11.7070826947
H 5.8503169025 9.3396769533 12.4893425253
H 5.8339605427 1.9051705231 13.081597774
H 5.0499663508 1.6524354087 14.4504615945
H 5.0273003175 10.0508431883 14.4516051157
H 5.8171626623 11.303433252 13.8385539987
H 6.6410747548 1.6216216371 20.5860557547
H 5.8534354779 0.373278635 21.2149513238
H 5.8396208101 9.7671455127 21.9578903175
H 6.6149637653 10.0266261481 20.583268267
H 3.6970938453 5.4511937158 23.3678690442
H 3.0801077933 4.2063507289 12.4882266885
H 4.4310366585 7.7359093838 23.3624361334
H 3.0756061382 7.4718511771 22.5538119099
H 1.4092029238 0.0168099172 15.624024917
H 2.7580940649 10.879371491 15.8780671965
H 2.154593702 0.0071556 17.9027552959
H 2.7682608958 0.800709612 19.1512377342
H 2.7077342224 3.115960227 14.4035483899
H 1.3703415389 3.1680312491 13.5184121242
H 2.6569432669 3.9827059019 22.0143680969
H 1.3589556023 3.1548501005 21.5286331146
H 2.6637375538 7.674360891 13.0309048293
H 1.8406955896 7.1890922282 14.3291331216
H 2.6896019418 8.546489036 20.637513817
H 1.8311099157 7.1902156296 20.6786569831
H 3.1698510278 1.3662985737 15.6899773371
H 3.972557325 2.6778526114 16.1803020299
H 3.9800000212 8.9849418605 16.1527220873
H 3.1138116857 8.9389006442 14.8018131551
H 4.4751970813 1.8398710035 20.2058061492
H 3.1263939901 2.7073667709 20.2624698173
H 3.1637465071 10.3265303628 19.3801060511
H 4.4542232529 9.8360562271 20.2140149302
H 7.2504083003 3.942367561 23.3567942537
H 8.60809604 4.2027728742 12.4828822502
H 7.9976208204 6.2220772108 23.3488979427
H 8.5963618902 7.4739863437 22.5497773963
H 9.5272462878 11.6673944922 17.1379889107
H 8.9124930255 10.8714412703 15.8875294075
H 10.2707222427 11.6635211169 19.406864491
H 8.9187341679 0.801276852 19.1591615325
H 8.9756547517 3.1292136216 14.4054836663
H 9.8268503241 4.4886645307 14.3762682791
H 9.0001334087 4.002166294 22.0009668748
H 9.8212319089 4.4925847472 20.7028822161
H 9.0147321562 7.6950526072 13.026272604
H 10.3083128375 8.5250596609 13.5137684621
H 8.9455695585 8.5768502129 20.6231070384
H 10.2886907892 8.5387173595 21.503856769
H 8.5065731607 1.3505035408 15.6607324719
H 7.212309525 1.8383676995 14.8322267888
H 7.1950790065 9.8451321161 14.8447465169
H 8.5415116327 8.974907805 14.7807609747
H 7.6737231702 2.6739245824 18.8801960098
H 8.5428564691 2.7353197403 20.226871046
H 8.4933539127 10.3219750885 19.3438324919
H 7.6793984752 9.018635099 18.8522878631
H 3.491621947 6.6449238878 17.5120709209
H 2.3350132685 5.8610656886 16.7165527476
H 8.1697404104 5.0272185081 17.5389859434
H 9.3283288656 5.8157302985 18.3333121728
H 1.6285824537 5.0326855314 20.2810582796
H 1.8784663305 5.8328393751 18.9208741093
H 10.0481324094 6.6499000181 20.2850653484
H 11.2844169044 5.8374172284 19.6715620387
H 1.6140995676 5.0343997301 14.7549104648
H 0.3814015548 5.8449110779 15.3783614452
H 10.0200640615 6.6608708301 14.7758906681
H 9.7558093972 5.8559891515 16.1347376071
H 3.9296688901 4.4447413682 17.5239118737
H 4.1926184133 3.0891740447 18.3337207567
H 6.2136008095 3.6871750336 17.5108428832
H 7.4552911363 3.0637614799 16.7128859965
H 5.4533720153 7.993808018 17.5285764116
H 4.2127078189 8.6188974831 18.3291878527
H 7.7259240918 7.2397617439 17.5214552286
H 7.4716391299 8.5916108146 16.706165356
O 0.0181046439 0.0047975939 14.595517313
O 11.6602179653 11.6775287234 20.42513738
O 0.0119435514 2.2490151591 13.0533359238
O 0.0063746617 2.2267802806 21.9885475412
O 11.6585737944 9.4401367354 13.0372041795
O 11.6590096016 9.4360465113 21.9805864893
O 5.8606142072 2.921647708 11.6835146639
O 5.8214891804 8.7536943167 23.3600695504
O 5.8541660831 1.3687399422 13.9251939254
O 5.8364490856 10.3089769491 13.9194876654
O 5.8355972315 1.3671940579 21.1272491149
O 5.8140668709 10.3071771965 21.1169866804
O 3.6122464788 4.4563933271 23.3552402261
O 3.5913515307 7.1916875746 11.6855538635
O 2.2527501362 0.0169229664 16.1603446093
O 2.2333371741 11.6716641231 18.8976501317
O 2.1540036681 3.715463155 13.8207451014
O 2.1452979841 3.6865843154 21.2060337455
O 2.1328707962 7.9989871292 13.8172041015
O 2.1157109515 7.9766560468 21.2318235929
O 3.702043494 2.1540045169 15.3688510076
O 3.6882648698 9.5359715315 15.3697502482
O 3.6926261512 2.1398022543 19.6578032303
O 3.6700841454 9.514241696 19.6769666727
O 8.0927837305 4.482320134 23.3507456408
O 8.0713910022 7.2176580775 11.6842189948
O 9.4517366444 -6.0873677253e-04 16.1417314973
O 9.4260914022 11.6666537138 18.8706595031
O 9.5518774557 3.7044190673 13.8181338851
O 9.5324179451 3.6795588794 21.2134602055
O 9.5226680706 7.9916158612 13.8374430825
O 9.5083067699 7.984634532 21.2065692367
O 7.9986301011 2.1605431678 15.3657426909
O 7.9827274342 9.5478136872 15.3872416047
O 7.9726182871 2.1297653621 19.6657581153
O 7.9575191849 9.5374914985 19.6644153908
O 2.9110441205 5.8320672891 17.532626765
O 8.7460701986 5.8442535102 17.5210597657
O 1.3366048418 5.8357767771 19.7610824309
O 10.2889836725 5.830687153 19.7607455219
O 1.3739695227 5.8515526618 15.2843339669
O 10.3097714244 5.8583997089 15.300678219
O 4.4708469396 3.6029643041 17.5196615388
O 7.2078888235 3.6010173153 17.5211031504
O 4.4576380921 8.0772855406 17.5225883963
O 7.1856786292 8.080835092 17.5192588907
